                              1 .area _CODE_1
                              2 .globl _game_over_tiledata
   0000 02 00                 3 .dw _game_over_tiledata
   0002                       4 _game_over_tiledata:
   0002 00 00 00 00 00 00     5 .db 0X00,0X00,0X00,0X00,0X00,0X00,0X00,0X00
        00 00
   000A 00 00 00 00 00 00     6 .db 0X00,0X00,0X00,0X00,0X00,0X00,0X00,0X00
        00 00
   0012 00 00 00 00 00 00     7 .db 0X00,0X00,0X00,0X00,0X00,0X00,0X00,0X00
        00 00
   001A 00 00 00 00 10 08     8 .db 0X00,0X00,0X00,0X00,0X10,0X08,0X58,0X38
        58 38
   0022 00 00 01 00 0B 07     9 .db 0X00,0X00,0X01,0X00,0X0B,0X07,0X1C,0X0C
        1C 0C
   002A 0C 0C 06 07 02 01    10 .db 0X0C,0X0C,0X06,0X07,0X02,0X01,0X00,0X00
        00 00
   0032 0F 03 BA 7C E0 80    11 .db 0X0F,0X03,0XBA,0X7C,0XE0,0X80,0X00,0X00
        00 00
   003A 00 00 01 00 81 00    12 .db 0X00,0X00,0X01,0X00,0X81,0X00,0X01,0X01
        01 01
   0042 F0 E0 00 60 60 40    13 .db 0XF0,0XE0,0X00,0X60,0X60,0X40,0XC0,0X40
        C0 40
   004A C0 80 80 80 00 80    14 .db 0XC0,0X80,0X80,0X80,0X00,0X80,0X84,0X03
        84 03
   0052 00 00 00 00 00 00    15 .db 0X00,0X00,0X00,0X00,0X00,0X00,0X00,0X00
        00 00
   005A 00 00 00 00 00 00    16 .db 0X00,0X00,0X00,0X00,0X00,0X00,0X01,0X00
        01 00
   0062 00 00 00 00 00 00    17 .db 0X00,0X00,0X00,0X00,0X00,0X00,0X00,0X00
        00 00
   006A 00 00 00 00 00 80    18 .db 0X00,0X00,0X00,0X00,0X00,0X80,0X80,0XC0
        80 C0
   0072 00 00 00 00 38 30    19 .db 0X00,0X00,0X00,0X00,0X38,0X30,0X30,0X30
        30 30
   007A 20 00 00 00 00 00    20 .db 0X20,0X00,0X00,0X00,0X00,0X00,0X00,0X00
        00 00
   0082 00 00 00 00 00 00    21 .db 0X00,0X00,0X00,0X00,0X00,0X00,0X00,0X00
        00 00
   008A 00 00 00 00 08 00    22 .db 0X00,0X00,0X00,0X00,0X08,0X00,0XFC,0X7C
        FC 7C
   0092 00 00 00 00 06 06    23 .db 0X00,0X00,0X00,0X00,0X06,0X06,0X07,0X06
        07 06
   009A 00 00 00 00 00 00    24 .db 0X00,0X00,0X00,0X00,0X00,0X00,0X00,0X00
        00 00
   00A2 00 00 00 00 00 00    25 .db 0X00,0X00,0X00,0X00,0X00,0X00,0X00,0X00
        00 00
   00AA 00 00 00 00 00 00    26 .db 0X00,0X00,0X00,0X00,0X00,0X00,0X38,0X10
        38 10
   00B2 00 00 00 00 00 00    27 .db 0X00,0X00,0X00,0X00,0X00,0X00,0X00,0X00
        00 00
   00BA 00 00 00 00 00 00    28 .db 0X00,0X00,0X00,0X00,0X00,0X00,0X06,0X01
        06 01
   00C2 00 00 00 00 00 00    29 .db 0X00,0X00,0X00,0X00,0X00,0X00,0X00,0X00
        00 00
   00CA 00 00 00 00 00 00    30 .db 0X00,0X00,0X00,0X00,0X00,0X00,0X80,0X00
        80 00
   00D2 03 01 00 03 02 02    31 .db 0X03,0X01,0X00,0X03,0X02,0X02,0X00,0X06
        00 06
   00DA 06 04 0C 04 08 08    32 .db 0X06,0X04,0X0C,0X04,0X08,0X08,0X00,0X18
        00 18
   00E2 04 0F 10 19 33 11    33 .db 0X04,0X0F,0X10,0X19,0X33,0X11,0X33,0X26
        33 26
   00EA 28 3C 60 30 40 20    34 .db 0X28,0X3C,0X60,0X30,0X40,0X20,0X40,0X20
        40 20
   00F2 80 80 01 81 80 03    35 .db 0X80,0X80,0X01,0X81,0X80,0X03,0X06,0X02
        06 02
   00FA 0E 04 0C 18 38 18    36 .db 0X0E,0X04,0X0C,0X18,0X38,0X18,0X70,0X20
        70 20
   0102 B0 F8 88 10 10 10    37 .db 0XB0,0XF8,0X88,0X10,0X10,0X10,0X20,0X10
        20 10
   010A 20 20 23 41 C7 43    38 .db 0X20,0X20,0X23,0X41,0XC7,0X43,0X0E,0XC4
        0E C4
   0112 10 00 10 11 33 33    39 .db 0X10,0X00,0X10,0X11,0X33,0X33,0X24,0X76
        24 76
   011A 6C F8 B8 F0 F0 60    40 .db 0X6C,0XF8,0XB8,0XF0,0XF0,0X60,0X40,0X60
        40 60
   0122 80 60 E3 E1 A7 22    41 .db 0X80,0X60,0XE3,0XE1,0XA7,0X22,0X64,0X2C
        64 2C
   012A 08 78 70 70 E0 61    42 .db 0X08,0X78,0X70,0X70,0XE0,0X61,0X61,0XC1
        61 C1
   0132 20 C0 C1 E0 00 61    43 .db 0X20,0XC0,0XC1,0XE0,0X00,0X61,0X43,0X41
        43 41
   013A 43 C3 C6 87 8E 8E    44 .db 0X43,0XC3,0XC6,0X87,0X8E,0X8E,0X9C,0X0E
        9C 0E
   0142 40 C0 C1 80 81 81    45 .db 0X40,0XC0,0XC1,0X80,0X81,0X81,0X81,0X03
        81 03
   014A 03 07 0D 0F 1B 1B    46 .db 0X03,0X07,0X0D,0X0F,0X1B,0X1B,0X13,0X33
        13 33
   0152 80 03 8D 87 8B 99    47 .db 0X80,0X03,0X8D,0X87,0X8B,0X99,0X63,0XB1
        63 B1
   015A E3 C2 C2 82 06 82    48 .db 0XE3,0XC2,0XC2,0X82,0X06,0X82,0X06,0X04
        06 04
   0162 03 01 03 06 04 0C    49 .db 0X03,0X01,0X03,0X06,0X04,0X0C,0X1C,0X08
        1C 08
   016A 00 18 10 10 30 30    50 .db 0X00,0X18,0X10,0X10,0X30,0X30,0X30,0X70
        30 70
   0172 C0 80 00 00 18 08    51 .db 0XC0,0X80,0X00,0X00,0X18,0X08,0X18,0X10
        18 10
   017A 10 30 71 20 61 61    52 .db 0X10,0X30,0X71,0X20,0X61,0X61,0X66,0XC3
        66 C3
   0182 18 08 18 10 30 30    53 .db 0X18,0X08,0X18,0X10,0X30,0X30,0X70,0X20
        70 20
   018A E0 60 E1 C1 C3 C3    54 .db 0XE0,0X60,0XE1,0XC1,0XC3,0XC3,0X84,0XC6
        84 C6
   0192 10 18 30 18 38 28    55 .db 0X10,0X18,0X30,0X18,0X38,0X28,0X6C,0X48
        6C 48
   019A C4 88 88 04 00 0C    56 .db 0XC4,0X88,0X88,0X04,0X00,0X0C,0X09,0X05
        09 05
   01A2 1E 08 20 11 21 21    57 .db 0X1E,0X08,0X20,0X11,0X21,0X21,0X41,0X41
        41 41
   01AA 41 41 C1 40 C0 C0    58 .db 0X41,0X41,0XC1,0X40,0XC0,0XC0,0XC1,0XC0
        C1 C0
   01B2 80 80 E0 C0 A0 20    59 .db 0X80,0X80,0XE0,0XC0,0XA0,0X20,0X11,0X21
        11 21
   01BA A1 23 26 E7 6E FD    60 .db 0XA1,0X23,0X26,0XE7,0X6E,0XFD,0XA9,0XD1
        A9 D1
   01C2 02 01 42 47 C8 CC    61 .db 0X02,0X01,0X42,0X47,0XC8,0XCC,0X99,0XD0
        99 D0
   01CA B0 E1 E1 C1 C2 81    62 .db 0XB0,0XE1,0XE1,0XC1,0XC2,0X81,0X01,0X82
        01 82
   01D2 00 80 80 80 80 80    63 .db 0X00,0X80,0X80,0X80,0X80,0X80,0X00,0X80
        00 80
   01DA 80 00 00 00 00 10    64 .db 0X80,0X00,0X00,0X00,0X00,0X10,0X10,0X30
        10 30
   01E2 38 10 00 30 60 20    65 .db 0X38,0X10,0X00,0X30,0X60,0X20,0X40,0X40
        40 40
   01EA 00 00 00 00 00 00    66 .db 0X00,0X00,0X00,0X00,0X00,0X00,0X00,0X00
        00 00
   01F2 20 20 1F 31 1C 0E    67 .db 0X20,0X20,0X1F,0X31,0X1C,0X0E,0X00,0X00
        00 00
   01FA 00 00 00 00 00 00    68 .db 0X00,0X00,0X00,0X00,0X00,0X00,0X00,0X00
        00 00
   0202 60 C0 00 80 00 00    69 .db 0X60,0XC0,0X00,0X80,0X00,0X00,0X00,0X00
        00 00
   020A 00 00 00 00 00 00    70 .db 0X00,0X00,0X00,0X00,0X00,0X00,0X00,0X00
        00 00
   0212 88 98 E0 F0 A0 40    71 .db 0X88,0X98,0XE0,0XF0,0XA0,0X40,0X00,0X00
        00 00
   021A 00 00 00 00 00 00    72 .db 0X00,0X00,0X00,0X00,0X00,0X00,0X00,0X00
        00 00
   0222 60 C0 80 C1 81 00    73 .db 0X60,0XC0,0X80,0XC1,0X81,0X00,0X00,0X00
        00 00
   022A 00 00 00 00 00 00    74 .db 0X00,0X00,0X00,0X00,0X00,0X00,0X00,0X00
        00 00
   0232 C3 81 83 81 83 01    75 .db 0XC3,0X81,0X83,0X81,0X83,0X01,0X00,0X00
        00 00
   023A 00 00 00 00 00 00    76 .db 0X00,0X00,0X00,0X00,0X00,0X00,0X00,0X00
        00 00
   0242 36 1C 35 67 C1 82    77 .db 0X36,0X1C,0X35,0X67,0XC1,0X82,0X00,0X00
        00 00
   024A 00 00 00 00 00 00    78 .db 0X00,0X00,0X00,0X00,0X00,0X00,0X00,0X00
        00 00
   0252 C6 62 C6 84 04 00    79 .db 0XC6,0X62,0XC6,0X84,0X04,0X00,0X00,0X00
        00 00
   025A 00 00 00 00 00 00    80 .db 0X00,0X00,0X00,0X00,0X00,0X00,0X00,0X00
        00 00
   0262 0C 04 0B 05 06 0E    81 .db 0X0C,0X04,0X0B,0X05,0X06,0X0E,0X00,0X00
        00 00
   026A 00 00 00 00 00 00    82 .db 0X00,0X00,0X00,0X00,0X00,0X00,0X00,0X00
        00 00
   0272 80 F1 9F 13 1A 0C    83 .db 0X80,0XF1,0X9F,0X13,0X1A,0X0C,0X00,0X00
        00 00
   027A 00 00 00 00 00 00    84 .db 0X00,0X00,0X00,0X00,0X00,0X00,0X00,0X00
        00 00
   0282 C4 CE DC 78 50 20    85 .db 0XC4,0XCE,0XDC,0X78,0X50,0X20,0X00,0X00
        00 00
   028A 00 00 00 00 00 00    86 .db 0X00,0X00,0X00,0X00,0X00,0X00,0X00,0X00
        00 00
   0292 9C 88 D9 F1 E1 00    87 .db 0X9C,0X88,0XD9,0XF1,0XE1,0X00,0X00,0X00
        00 00
   029A 00 00 00 00 00 00    88 .db 0X00,0X00,0X00,0X00,0X00,0X00,0X00,0X00
        00 00
   02A2 06 0F 2E DC 18 E0    89 .db 0X06,0X0F,0X2E,0XDC,0X18,0XE0,0X00,0X00
        00 00
   02AA 00 00 00 00 00 00    90 .db 0X00,0X00,0X00,0X00,0X00,0X00,0X00,0X00
        00 00
   02B2 C3 61 3E 7F 2A 1C    91 .db 0XC3,0X61,0X3E,0X7F,0X2A,0X1C,0X00,0X00
        00 00
   02BA 00 00 00 00 00 00    92 .db 0X00,0X00,0X00,0X00,0X00,0X00,0X00,0X00
        00 00
   02C2 81 83 02 03 02 00    93 .db 0X81,0X83,0X02,0X03,0X02,0X00,0X00,0X00
        00 00
   02CA 00 00 00 00 00 00    94 .db 0X00,0X00,0X00,0X00,0X00,0X00,0X00,0X00
        00 00
   02D2 02 02 01 06 02 07    95 .db 0X02,0X02,0X01,0X06,0X02,0X07,0X00,0X00
        00 00
   02DA 00 00 00 00 00 00    96 .db 0X00,0X00,0X00,0X00,0X00,0X00,0X00,0X00
        00 00
   02E2 C0 60 80 C0 80 00    97 .db 0XC0,0X60,0X80,0XC0,0X80,0X00,0X00,0X00
        00 00
   02EA 00 00 00 00 00 00    98 .db 0X00,0X00,0X00,0X00,0X00,0X00,0X00,0X00
        00 00
   02F2 00 00 00 00 00 00    99 .db 0X00,0X00,0X00,0X00,0X00,0X00,0X00,0X00
        00 00
   02FA 00 00 00 00 02 00   100 .db 0X00,0X00,0X00,0X00,0X02,0X00,0X06,0X07
        06 07
   0302 0E 09 02 19 3A 12   101 .db 0X0E,0X09,0X02,0X19,0X3A,0X12,0X36,0X12
        36 12
   030A 30 26 64 24 0C 68   102 .db 0X30,0X26,0X64,0X24,0X0C,0X68,0X50,0X48
        50 48
   0312 00 00 00 00 01 03   103 .db 0X00,0X00,0X00,0X00,0X01,0X03,0X03,0X03
        03 03
   031A 00 00 00 00 00 00   104 .db 0X00,0X00,0X00,0X00,0X00,0X00,0X00,0X00
        00 00
   0322 00 00 00 00 00 00   105 .db 0X00,0X00,0X00,0X00,0X00,0X00,0X80,0X00
        80 00
   032A 00 00 00 00 00 00   106 .db 0X00,0X00,0X00,0X00,0X00,0X00,0X00,0X00
        00 00
   0332 00 00 00 00 00 00   107 .db 0X00,0X00,0X00,0X00,0X00,0X00,0X01,0X00
        01 00
   033A 01 01 01 01 00 03   108 .db 0X01,0X01,0X01,0X01,0X00,0X03,0X00,0X03
        00 03
   0342 17 0E 71 3F 40 E0   109 .db 0X17,0X0E,0X71,0X3F,0X40,0XE0,0X81,0XC0
        81 C0
   034A 01 81 01 01 01 03   110 .db 0X01,0X81,0X01,0X01,0X01,0X03,0X06,0X03
        06 03
   0352 78 D0 C1 F1 E2 E3   111 .db 0X78,0XD0,0XC1,0XF1,0XE2,0XE3,0XC6,0XC2
        C6 C2
   035A C6 84 05 87 0C 0E   112 .db 0XC6,0X84,0X05,0X87,0X0C,0X0E,0X0C,0X1C
        0C 1C
   0362 80 60 90 F0 00 30   113 .db 0X80,0X60,0X90,0XF0,0X00,0X30,0X70,0X20
        70 20
   036A 60 C0 00 80 02 00   114 .db 0X60,0XC0,0X00,0X80,0X02,0X00,0X06,0X02
        06 02
   0372 00 00 04 0C 08 1C   115 .db 0X00,0X00,0X04,0X0C,0X08,0X1C,0X39,0X18
        39 18
   037A 79 39 71 51 F1 93   116 .db 0X79,0X39,0X71,0X51,0XF1,0X93,0X93,0X23
        93 23
   0382 20 18 24 7C 80 CC   117 .db 0X20,0X18,0X24,0X7C,0X80,0XCC,0X9C,0X88
        9C 88
   038A 98 30 40 E0 00 80   118 .db 0X98,0X30,0X40,0XE0,0X00,0X80,0X01,0X00
        01 00
   0392 00 00 00 04 08 04   119 .db 0X00,0X00,0X00,0X04,0X08,0X04,0X1C,0X08
        1C 08
   039A 18 18 38 30 70 F0   120 .db 0X18,0X18,0X38,0X30,0X70,0XF0,0XC0,0XF0
        C0 F0
   03A2 00 00 04 00 04 08   121 .db 0X00,0X00,0X04,0X00,0X04,0X08,0X18,0X08
        18 08
   03AA 10 18 10 30 70 20   122 .db 0X10,0X18,0X10,0X30,0X70,0X20,0XE0,0X60
        E0 60
   03B2 00 00 00 00 00 00   123 .db 0X00,0X00,0X00,0X00,0X00,0X00,0X00,0X00
        00 00
   03BA 00 00 00 00 00 00   124 .db 0X00,0X00,0X00,0X00,0X00,0X00,0X40,0X80
        40 80
   03C2 01 02 03 01 03 01   125 .db 0X01,0X02,0X03,0X01,0X03,0X01,0X01,0X00
        01 00
   03CA 00 00 00 00 00 00   126 .db 0X00,0X00,0X00,0X00,0X00,0X00,0X00,0X00
        00 00
   03D2 0E 06 0A 1E 7B B3   127 .db 0X0E,0X06,0X0A,0X1E,0X7B,0XB3,0XC3,0XE1
        C3 E1
   03DA 00 00 00 00 00 00   128 .db 0X00,0X00,0X00,0X00,0X00,0X00,0X00,0X00
        00 00
   03E2 18 3C 44 64 83 C6   129 .db 0X18,0X3C,0X44,0X64,0X83,0XC6,0X03,0X01
        03 01
   03EA 00 00 00 00 00 00   130 .db 0X00,0X00,0X00,0X00,0X00,0X00,0X00,0X00
        00 00
   03F2 0E 04 0C 18 E8 30   131 .db 0X0E,0X04,0X0C,0X18,0XE8,0X30,0X00,0XC0
        00 C0
   03FA 00 00 00 00 00 00   132 .db 0X00,0X00,0X00,0X00,0X00,0X00,0X00,0X00
        00 00
   0402 00 00 00 00 00 00   133 .db 0X00,0X00,0X00,0X00,0X00,0X00,0X00,0X00
        00 00
   040A 00 01 01 03 07 02   134 .db 0X00,0X01,0X01,0X03,0X07,0X02,0X04,0X05
        04 05
   0412 27 27 7B 2D 78 71   135 .db 0X27,0X27,0X7B,0X2D,0X78,0X71,0XE0,0X40
        E0 40
   041A 80 C0 C0 80 80 80   136 .db 0X80,0XC0,0XC0,0X80,0X80,0X80,0X00,0X80
        00 80
   0422 03 01 03 06 FA 8C   137 .db 0X03,0X01,0X03,0X06,0XFA,0X8C,0XE0,0X70
        E0 70
   042A 00 00 00 00 00 00   138 .db 0X00,0X00,0X00,0X00,0X00,0X00,0X00,0X00
        00 00
   0432 A1 20 63 21 2C 26   139 .db 0XA1,0X20,0X63,0X21,0X2C,0X26,0X18,0X30
        18 30
   043A 00 00 00 00 00 00   140 .db 0X00,0X00,0X00,0X00,0X00,0X00,0X00,0X00
        00 00
   0442 C0 A1 24 43 6E 24   141 .db 0XC0,0XA1,0X24,0X43,0X6E,0X24,0X18,0X30
        18 30
   044A 00 00 00 00 00 00   142 .db 0X00,0X00,0X00,0X00,0X00,0X00,0X00,0X00
        00 00
   0452 00 80 00 00 00 00   143 .db 0X00,0X80,0X00,0X00,0X00,0X00,0X00,0X00
        00 00
   045A 00 00 00 00 00 00   144 .db 0X00,0X00,0X00,0X00,0X00,0X00,0X00,0X00
        00 00
   0462 0D 09 1F 09 1B 0A   145 .db 0X0D,0X09,0X1F,0X09,0X1B,0X0A,0X1E,0X0A
        1E 0A
   046A 1E 0C 04 00 00 00   146 .db 0X1E,0X0C,0X04,0X00,0X00,0X00,0X00,0X00
        00 00
   0472 80 00 00 00 00 00   147 .db 0X80,0X00,0X00,0X00,0X00,0X00,0X00,0X00
        00 00
   047A 00 00 00 00 00 00   148 .db 0X00,0X00,0X00,0X00,0X00,0X00,0X00,0X00
        00 00
                            149 .globl _game_over_tilemap
   0482 84 04               150 .dw _game_over_tilemap
   0484                     151 _game_over_tilemap:
   0484 00 00 00 00 00 00   152 .db 0X00,0X00,0X00,0X00,0X00,0X00,0X00,0X00
        00 00
   048C 00 00 00 00 00 00   153 .db 0X00,0X00,0X00,0X00,0X00,0X00,0X00,0X00
        00 00
   0494 00 00 00 00 00 00   154 .db 0X00,0X00,0X00,0X00,0X00,0X00,0X00,0X00
        00 00
   049C 00 00 00 00 00 00   155 .db 0X00,0X00,0X00,0X00,0X00,0X00,0X00,0X00
        00 00
   04A4 00 00 00 00 00 00   156 .db 0X00,0X00,0X00,0X00,0X00,0X00,0X00,0X00
        00 00
   04AC 00 00 00 00 00 00   157 .db 0X00,0X00,0X00,0X00,0X00,0X00,0X00,0X00
        00 00
   04B4 00 00 00 00 00 00   158 .db 0X00,0X00,0X00,0X00,0X00,0X00,0X00,0X00
        00 00
   04BC 00 00 00 00 00 00   159 .db 0X00,0X00,0X00,0X00,0X00,0X00,0X00,0X00
        00 00
   04C4 00 00 00 00 00 00   160 .db 0X00,0X00,0X00,0X00,0X00,0X00,0X00,0X00
        00 00
   04CC 00 00 00 00 00 00   161 .db 0X00,0X00,0X00,0X00,0X00,0X00,0X00,0X00
        00 00
   04D4 00 00 00 01 00 00   162 .db 0X00,0X00,0X00,0X01,0X00,0X00,0X00,0X00
        00 00
   04DC 00 00 00 00 00 00   163 .db 0X00,0X00,0X00,0X00,0X00,0X00,0X00,0X00
        00 00
   04E4 00 00 00 00 00 02   164 .db 0X00,0X00,0X00,0X00,0X00,0X02,0X03,0X04
        03 04
   04EC 05 06 00 00 00 07   165 .db 0X05,0X06,0X00,0X00,0X00,0X07,0X00,0X00
        00 00
   04F4 08 09 0A 0B 0C 00   166 .db 0X08,0X09,0X0A,0X0B,0X0C,0X00,0X00,0X00
        00 00
   04FC 00 00 0D 0E 0F 10   167 .db 0X00,0X00,0X0D,0X0E,0X0F,0X10,0X11,0X12
        11 12
   0504 13 14 15 16 17 18   168 .db 0X13,0X14,0X15,0X16,0X17,0X18,0X19,0X1A
        19 1A
   050C 1B 1C 1D 00 00 00   169 .db 0X1B,0X1C,0X1D,0X00,0X00,0X00,0X1E,0X1F
        1E 1F
   0514 20 21 22 23 24 25   170 .db 0X20,0X21,0X22,0X23,0X24,0X25,0X26,0X27
        26 27
   051C 28 29 2A 2B 2C 2D   171 .db 0X28,0X29,0X2A,0X2B,0X2C,0X2D,0X2E,0X00
        2E 00
   0524 00 00 00 00 00 00   172 .db 0X00,0X00,0X00,0X00,0X00,0X00,0X00,0X2F
        00 2F
   052C 00 00 00 00 00 00   173 .db 0X00,0X00,0X00,0X00,0X00,0X00,0X00,0X00
        00 00
   0534 00 00 00 00 00 00   174 .db 0X00,0X00,0X00,0X00,0X00,0X00,0X00,0X00
        00 00
   053C 00 00 00 30 00 00   175 .db 0X00,0X00,0X00,0X30,0X00,0X00,0X31,0X32
        31 32
   0544 00 00 00 00 00 00   176 .db 0X00,0X00,0X00,0X00,0X00,0X00,0X00,0X00
        00 00
   054C 00 00 00 00 00 33   177 .db 0X00,0X00,0X00,0X00,0X00,0X33,0X34,0X35
        34 35
   0554 36 05 37 38 39 3A   178 .db 0X36,0X05,0X37,0X38,0X39,0X3A,0X3B,0X00
        3B 00
   055C 00 00 00 00 00 00   179 .db 0X00,0X00,0X00,0X00,0X00,0X00,0X00,0X00
        00 00
   0564 00 3C 3D 3E 3F 40   180 .db 0X00,0X3C,0X3D,0X3E,0X3F,0X40,0X41,0X42
        41 42
   056C 43 44 45 00 00 00   181 .db 0X43,0X44,0X45,0X00,0X00,0X00,0X00,0X00
        00 00
   0574 00 00 00 00 00 00   182 .db 0X00,0X00,0X00,0X00,0X00,0X00,0X00,0X00
        00 00
   057C 00 46 47 00 00 00   183 .db 0X00,0X46,0X47,0X00,0X00,0X00,0X00,0X00
        00 00
   0584 00 00 00 00 00 00   184 .db 0X00,0X00,0X00,0X00,0X00,0X00,0X00,0X00
        00 00
   058C 00 00 00 00 00 00   185 .db 0X00,0X00,0X00,0X00,0X00,0X00,0X00,0X00
        00 00
   0594 00 00 00 00 00 00   186 .db 0X00,0X00,0X00,0X00,0X00,0X00,0X00,0X00
        00 00
   059C 00 00 00 00 00 00   187 .db 0X00,0X00,0X00,0X00,0X00,0X00,0X00,0X00
        00 00
   05A4 00 00 00 00 00 00   188 .db 0X00,0X00,0X00,0X00,0X00,0X00,0X00,0X00
        00 00
   05AC 00 00 00 00 00 00   189 .db 0X00,0X00,0X00,0X00,0X00,0X00,0X00,0X00
        00 00
   05B4 00 00 00 00 00 00   190 .db 0X00,0X00,0X00,0X00,0X00,0X00,0X00,0X00
        00 00
   05BC 00 00 00 00 00 00   191 .db 0X00,0X00,0X00,0X00,0X00,0X00,0X00,0X00
        00 00
   05C4 00 00 00 00 00 00   192 .db 0X00,0X00,0X00,0X00,0X00,0X00,0X00,0X00
        00 00
   05CC 00 00 00 00 00 00   193 .db 0X00,0X00,0X00,0X00,0X00,0X00,0X00,0X00
        00 00
   05D4 00 00 00 00 00 00   194 .db 0X00,0X00,0X00,0X00,0X00,0X00,0X00,0X00
        00 00
   05DC 00 00 00 00 00 00   195 .db 0X00,0X00,0X00,0X00,0X00,0X00,0X00,0X00
        00 00
   05E4 00 00 00 00 00 00   196 .db 0X00,0X00,0X00,0X00,0X00,0X00,0X00,0X00
        00 00
ASxxxx Assembler V01.75  (GameBoy Z80-like CPU), page 1.

Symbol Table

  1 _game_over_tiledata                0002 GR
  1 _game_over_tilemap                 0484 GR

ASxxxx Assembler V01.75  (GameBoy Z80-like CPU), page 2.

Area Table

   0 _CODE                              size    0   flags 0
   1 _CODE_1                            size  5EC   flags 0
